/*--------------------------------*- C++ -*----------------------------------*\
| =========                 |                                                 |
| \\      /  F ield         | OpenFOAM: The Open Source CFD Toolbox           |
|  \\    /   O peration     | Version:  2212                                  |
|   \\  /    A nd           | Website:  www.openfoam.com                      |
|    \\/     M anipulation  |                                                 |
\*---------------------------------------------------------------------------*/
FoamFile
{
    version     2.0;
    format      ascii;
    arch        "LSB;label=32;scalar=64";
    class       polyBoundaryMesh;
    location    "constant/polyMesh";
    object      boundary;
}
// * * * * * * * * * * * * * * * * * * * * * * * * * * * * * * * * * * * * * //

6
(
    top
    {
        type            wall;
        inGroups        1(wall);
        nFaces          145;
        startFace       16024;
    }
    left
    {
        type            wall;
        inGroups        1(wall);
        nFaces          145;
        startFace       16169;
    }
    back
    {
        type            wall;
        inGroups        1(wall);
        nFaces          145;
        startFace       16314;
    }
    right
    {
        type            wall;
        inGroups        1(wall);
        nFaces          145;
        startFace       16459;
    }
    bottom
    {
        type            wall;
        inGroups        1(wall);
        nFaces          145;
        startFace       16604;
    }
    front
    {
        type            wall;
        inGroups        1(wall);
        nFaces          145;
        startFace       16749;
    }
)

// ************************************************************************* //
